FoamFile
{
    version     2.0;
    format      ascii;
    class       dictionary;
    location    "system";
    object      fvSolution;
}

solvers
{
    "alpha.*"
    {
        nAlphaCorr      1;
        nMomentCorr     1;
        nAlphaSubCycles 2;
    }

    p_rgh
    {
        solver          GAMG;
        smoother        DIC;
        tolerance       1e-8;
        relTol          0;
    }

    p_rghFinal
    {
        $p_rgh;
        relTol          0;
    }

    "U.*"
    {
        solver          smoothSolver;
        smoother        symGaussSeidel;
        tolerance       1e-5;
        relTol          0;
        minIter         1;
    }

    Nsystem
    {
        tolerance       1e-5;
        silent          true;
        minIter         1;
        maxIter         10;
    }

    "N[fc].*"
    {
        solver          smoothSolver;
        smoother        symGaussSeidel;
        tolerance       1e-5;
        relTol          0;
        minIter         1;
    }

    "(e|k|epsilon|omega|kappa|lambda).*"
    {
        solver          smoothSolver;
        smoother        symGaussSeidel;
        tolerance       1e-5;
        relTol          0;
        minIter         1;
        maxIter         10;
    }
}

PIMPLE
{
    nOuterCorrectors    1;
    nCorrectors         3;
    nNonOrthogonalCorrectors 0;
    faceMomentum        true;
}

relaxationFactors
{
    equations
    {
        ".*"            1;
    }
}
