/*--------------------------------*- C++ -*----------------------------------*\
  =========                 |
  \\      /  F ield         | OpenFOAM: The Open Source CFD Toolbox
   \\    /   O peration     | Website:  https://openfoam.org
    \\  /    A nd           | Version:  9
     \\/     M anipulation  |
\*---------------------------------------------------------------------------*/
FoamFile
{
    format      ascii;
    class       polyBoundaryMesh;
    location    "constant/polyMesh";
    object      boundary;
}
// * * * * * * * * * * * * * * * * * * * * * * * * * * * * * * * * * * * * * //

6
(
    front
    {
        type            wedge;
        inGroups        List<word> 1(wedge);
        nFaces          54384;
        startFace       107888;
    }
    back
    {
        type            wedge;
        inGroups        List<word> 1(wedge);
        nFaces          54384;
        startFace       162272;
    }
    inlet
    {
        type            patch;
        nFaces          89;
        startFace       216656;
    }
    outlet
    {
        type            patch;
        nFaces          30;
        startFace       216745;
    }
    walls
    {
        type            wall;
        inGroups        List<word> 1(wall);
        nFaces          1353;
        startFace       216775;
    }
    axis
    {
        type            empty;
        inGroups        List<word> 1(empty);
        nFaces          0;
        startFace       218128;
    }
)

// ************************************************************************* //
