FoamFile
{
    version     2.0;
    format      ascii;
    class       volScalarField;
    object      Nc;
}

dimensions      [0 -3 0 0 0 0 0];

internalField   uniform 0;

boundaryField
{
    inlet
    {
        type            inletOutlet;
        phi             phi.helium;
        inletValue      $internalField;
        value           $internalField;
    }
    outlet
    {
        type            inletOutlet;
        phi             phi.helium;
        inletValue      $internalField;
        value           $internalField;
    }
    walls
    {
        type            zeroGradient;
    }

    #include "common"
}
