FoamFile
{
    version     2.0;
    format      ascii;
    class       volScalarField;
    object      promptHeatSource;
}

dimensions      [1 -1 -3 0 0 0 0];

internalField   uniform 0;

boundaryField
{
    inlet
    {
        type            calculated;
        value           $internalField;
    }
    outlet
    {
        type            calculated;
        value           $internalField;
    }
    walls
    {
        type            calculated;
        value           $internalField;
    }

    #include "common"
}
