FoamFile
{
    version     2.0;
    format      ascii;
    class       dictionary;
    location    "system";
    object      fvSolution;
}

solvers
{
    "alpha.*"
    {
        nAlphaCorr      2;
        nMomentCorr     2;
        nAlphaSubCycles 1;
    }

    p_rgh
    {
        solver          GAMG;
        smoother        DIC;
        tolerance       1e-6;
        relTol          0;
        maxIter         100;
    }

    p_rghFinal
    {
        $p_rgh;
    }

    "U.*"
    {
        solver          smoothSolver;
        smoother        symGaussSeidel;
        tolerance       1e-8;
        relTol          0;
        minIter         1;
    }

    Nsystem
    {
        tolerance       1e-6;
        silent          true;
        minIter         1;
        maxIter         3;
    }

    "N[fc].*"
    {
        solver          smoothSolver;
        smoother        symGaussSeidel;
        tolerance       1e-8;
        relTol          0;
        minIter         1;
    }

    "(e|k|epsilon|kappa|lambda).*"
    {
        solver          smoothSolver;
        smoother        symGaussSeidel;
        tolerance       1e-8;
        relTol          0;
        minIter         1;
        maxIter         10;
    }
}

PIMPLE
{
    nOuterCorrectors    3;
    nCorrectors         2;
    nNonOrthogonalCorrectors 0;
    faceMomentum        true;
}
