FoamFile
{
    version     2.0;
    format      ascii;
    class       dictionary;
    object      blockMeshDict;
}

convertToMeters 1;

vertices
(
    (0      0       0)

    (1.1275 0      -0.0492277131293)
    (1.8275 0      -0.0797903731653)
    (2.0645 0      -0.0901380166346)    

    (0      0.1875  0)

    (1.1275 0.1875 -0.0492277131293)
    (1.8275 0.1875 -0.0797903731653)
    (2.0645 0.1875 -0.0901380166346)    

    (0      2.0675  0)

    (1.1275 2.0675 -0.0492277131293)
    (1.8275 2.0675 -0.0797903731653)
    (2.0645 2.0675 -0.0901380166346)    

    (0      2.2550  0)

    (1.1275 2.2550 -0.0492277131293)
    (1.8275 2.2550 -0.0797903731653)
    (2.0645 2.2550 -0.0901380166346)    


    (1.1275 0       0.0492277131293)
    (1.8275 0       0.0797903731653)
    (2.0645 0       0.0901380166346)    

    (1.1275 0.1875  0.0492277131293)
    (1.8275 0.1875  0.0797903731653)
    (2.0645 0.1875  0.0901380166346)    

    (1.1275 2.0675  0.0492277131293)
    (1.8275 2.0675  0.0797903731653)
    (2.0645 2.0675  0.0901380166346)    

    (1.1275 2.2550  0.0492277131293)
    (1.8275 2.2550  0.0797903731653)
    (2.0645 2.2550  0.0901380166346)    
);

blocks
(
    hex (0 1 5 4 0 16 19 4)         (VARNX1 VARNY1 1) simpleGrading (1 1 1)
    hex (1 2 6 5 16 17 20 19)       (VARNX2 VARNY1 1) simpleGrading (1 1 1)
    hex (2 3 7 6 17 18 21 20)       (VARNX3 VARNY1 1) simpleGrading (1 1 1)

    hex (4 5 9 8 4 19 22 8)         (VARNX1 VARNY2 1) simpleGrading (1 1 1)
    hex (6 7 11 10 20 21 24 23)     (VARNX3 VARNY2 1) simpleGrading (1 1 1)

    hex (8 9 13 12 8 22 25 12)      (VARNX1 VARNY3 1) simpleGrading (1 1 1)
    hex (9 10 14 13 22 23 26 25)    (VARNX2 VARNY3 1) simpleGrading (1 1 1)
    hex (10 11 15 14 23 24 27 26)   (VARNX3 VARNY3 1) simpleGrading (1 1 1)
);

edges
();

boundary
(
    front
    {
        type    wedge;
        faces
        (
            (0 16 19 4)
            (16 17 20 19)
            (17 18 21 20)
            (4 19 22 8)
            (20 21 24 23)
            (8 22 25 12)
            (22 23 26 25)
            (23 24 27 26)
        );
    }

    back
    {
        type    wedge;
        faces
        (
            (4 5 1 0)
            (5 6 2 1)
            (6 7 3 2)
            (8 9 5 4)
            (10 11 7 6)
            (12 13 9 8)
            (13 14 10 9)
            (14 15 11 10)
        );
    }

    inlet
    {
        type    patch;
        faces
        (
            (1 2 17 16)
        );
    }

    outlet
    {
        type    patch;
        faces
        (
            (26 27 15 14)
        );
    }

    walls
    {
        type    wall;
        faces
        (
            (0 16 1 0)
            (17 18 3 2)
            (12 25 13 12)
            (25 26 14 13)
            (5 19 22 9)
            (23 10 6 20)
            (5 19 20 6)
            (22 9 10 23)
            (15 27 24 11)
            (11 24 21 7)
            (7 21 18 3)
        );
    }

    axis
    {
        type empty;
        faces
        (
            (0 4 4 0)
            (4 8 8 4)
            (8 12 12 8)
        );
    }
);

mergePatchPairs
(
);
