FoamFile
{
    format      ascii;
    class       dictionary;
    object      changeDictionaryDict;
}

controlDict
{
    endTime 2;
}
