FoamFile
{
    format      ascii;
    class       dictionary;
    location    "system";
    object      mapFieldsDict;
}

patchMap
();

cuttingPatches
();
