FoamFile
{
    version     2.0;
    format      ascii;
    class       volScalarField;
    location    "0";
    object      Nc;
}

dimensions      [0 -3 0 0 0 0 0];

internalField   uniform 0.0;

boundaryField
{
    inlet
    {
        type            inletOutlet;
        phi             phi.air;
        inletValue      $internalField;
        value           $internalField;
    }
    outlet
    {
        type            inletOutlet;
        phi             phi.air;
        inletValue      $internalField;
        value           $internalField;
    }
    walls
    {
        type            zeroGradient;
    }
    empties
    {
        type            empty;
    }
}
